examples/feeders/22_SE001_1/007_transformadores.dss
New Transformer.TRF_1_1277A phases=1 windings=3 buses=[MRT_244781TRF_1_1277A.2 ET1_1277.1.4 ET1_1277.4.2] conns=[Wye Wye Wye] kvs=[13.3367912182804 0.22 0.22] kvas=[10 10 10] %loadloss=1.95 %noloadloss=0.5
New Linecode.LC_MRT_TRF_1_1277A_1 nphases=1 basefreq=60 r1=15000 x1=0 units=km normamps=0
New Linecode.LC_MRT_TRF_1_1277A_2 nphases=2 basefreq=60 r1=15000 x1=0 units=km normamps=0
New Linecode.LC_MRT_TRF_1_1277A_3 nphases=3 basefreq=60 r1=15000 x1=0 units=km normamps=0
New Linecode.LC_MRT_TRF_1_1277A_4 nphases=4 basefreq=60 r1=15000 x1=0 units=km normamps=0
New Line.Resist_MTR_TRF_1_1277A phases=1 bus1=244781.2 bus2= MRT_244781TRF_1_1277A.2 linecode=LC_MRT_TRF_1_1277A_1 length=0.001 units=km
New Reactor.TRF_1_1277A_R phases=1 bus1=ET1_1277.4 R=15 X=0 basefreq=60
New Transformer.TRF_1_1676A phases=1 windings=3 buses=[MRT_246661TRF_1_1676A.1 ET1_1676.1.4 ET1_1676.4.2] conns=[Wye Wye Wye] kvs=[13.3367912182804 0.22 0.22] kvas=[15 15 15] %loadloss=1.766667 %noloadloss=0.433333
New Linecode.LC_MRT_TRF_1_1676A_1 nphases=1 basefreq=60 r1=15000 x1=0 units=km normamps=0
New Linecode.LC_MRT_TRF_1_1676A_2 nphases=2 basefreq=60 r1=15000 x1=0 units=km normamps=0
New Linecode.LC_MRT_TRF_1_1676A_3 nphases=3 basefreq=60 r1=15000 x1=0 units=km normamps=0
New Linecode.LC_MRT_TRF_1_1676A_4 nphases=4 basefreq=60 r1=15000 x1=0 units=km normamps=0
New Line.Resist_MTR_TRF_1_1676A phases=1 bus1=246661.1 bus2= MRT_246661TRF_1_1676A.1 linecode=LC_MRT_TRF_1_1676A_1 length=0.001 units=km
New Reactor.TRF_1_1676A_R phases=1 bus1=ET1_1676.4 R=15 X=0 basefreq=60
New Transformer.TRF_1_2803A phases=1 windings=3 buses=[MRT_244661TRF_1_2803A.2 ET1_2803.1.4 ET1_2803.4.2] conns=[Wye Wye Wye] kvs=[13.3367912182804 0.22 0.22] kvas=[10 10 10] %loadloss=1.95 %noloadloss=0.5
New Linecode.LC_MRT_TRF_1_2803A_1 nphases=1 basefreq=60 r1=15000 x1=0 units=km normamps=0
New Linecode.LC_MRT_TRF_1_2803A_2 nphases=2 basefreq=60 r1=15000 x1=0 units=km normamps=0
New Linecode.LC_MRT_TRF_1_2803A_3 nphases=3 basefreq=60 r1=15000 x1=0 units=km normamps=0
New Linecode.LC_MRT_TRF_1_2803A_4 nphases=4 basefreq=60 r1=15000 x1=0 units=km normamps=0
New Line.Resist_MTR_TRF_1_2803A phases=1 bus1=244661.2 bus2= MRT_244661TRF_1_2803A.2 linecode=LC_MRT_TRF_1_2803A_1 length=0.001 units=km
New Reactor.TRF_1_2803A_R phases=1 bus1=ET1_2803.4 R=15 X=0 basefreq=60
New Transformer.TRF_1_3554A phases=1 windings=3 buses=[MRT_244821TRF_1_3554A.2 ET1_3554.1.4 ET1_3554.4.2] conns=[Wye Wye Wye] kvs=[13.3367912182804 0.22 0.22] kvas=[15 15 15] %loadloss=1.766667 %noloadloss=0.433333
New Linecode.LC_MRT_TRF_1_3554A_1 nphases=1 basefreq=60 r1=15000 x1=0 units=km normamps=0
New Linecode.LC_MRT_TRF_1_3554A_2 nphases=2 basefreq=60 r1=15000 x1=0 units=km normamps=0
New Linecode.LC_MRT_TRF_1_3554A_3 nphases=3 basefreq=60 r1=15000 x1=0 units=km normamps=0
New Linecode.LC_MRT_TRF_1_3554A_4 nphases=4 basefreq=60 r1=15000 x1=0 units=km normamps=0
New Line.Resist_MTR_TRF_1_3554A phases=1 bus1=244821.2 bus2= MRT_244821TRF_1_3554A.2 linecode=LC_MRT_TRF_1_3554A_1 length=0.001 units=km
New Reactor.TRF_1_3554A_R phases=1 bus1=ET1_3554.4 R=15 X=0 basefreq=60
New Transformer.TRF_1_4818A phases=1 windings=3 buses=[MRT_246611TRF_1_4818A.1 ET1_4818.1.4 ET1_4818.4.2] conns=[Wye Wye Wye] kvs=[13.3367912182804 0.22 0.22] kvas=[15 15 15] %loadloss=1.766667 %noloadloss=0.433333
New Linecode.LC_MRT_TRF_1_4818A_1 nphases=1 basefreq=60 r1=15000 x1=0 units=km normamps=0
New Linecode.LC_MRT_TRF_1_4818A_2 nphases=2 basefreq=60 r1=15000 x1=0 units=km normamps=0
New Linecode.LC_MRT_TRF_1_4818A_3 nphases=3 basefreq=60 r1=15000 x1=0 units=km normamps=0
New Linecode.LC_MRT_TRF_1_4818A_4 nphases=4 basefreq=60 r1=15000 x1=0 units=km normamps=0
New Line.Resist_MTR_TRF_1_4818A phases=1 bus1=246611.1 bus2= MRT_246611TRF_1_4818A.1 linecode=LC_MRT_TRF_1_4818A_1 length=0.001 units=km
New Reactor.TRF_1_4818A_R phases=1 bus1=ET1_4818.4 R=15 X=0 basefreq=60
New Transformer.TRF_1_494A phases=1 windings=3 buses=[MRT_244741TRF_1_494A.1 ET1_494.1.4 ET1_494.4.2] conns=[Wye Wye Wye] kvs=[13.3367912182804 0.22 0.22] kvas=[15 15 15] %loadloss=1.766667 %noloadloss=0.433333
New Linecode.LC_MRT_TRF_1_494A_1 nphases=1 basefreq=60 r1=15000 x1=0 units=km normamps=0
New Linecode.LC_MRT_TRF_1_494A_2 nphases=2 basefreq=60 r1=15000 x1=0 units=km normamps=0
New Linecode.LC_MRT_TRF_1_494A_3 nphases=3 basefreq=60 r1=15000 x1=0 units=km normamps=0
New Linecode.LC_MRT_TRF_1_494A_4 nphases=4 basefreq=60 r1=15000 x1=0 units=km normamps=0
New Line.Resist_MTR_TRF_1_494A phases=1 bus1=244741.1 bus2= MRT_244741TRF_1_494A.1 linecode=LC_MRT_TRF_1_494A_1 length=0.001 units=km
New Reactor.TRF_1_494A_R phases=1 bus1=ET1_494.4 R=15 X=0 basefreq=60
New Transformer.TRF_1_4943A phases=1 windings=3 buses=[MRT_245581TRF_1_4943A.1 ET1_4943.1.4 ET1_4943.4.2] conns=[Wye Wye Wye] kvs=[13.3367912182804 0.22 0.22] kvas=[10 10 10] %loadloss=1.95 %noloadloss=0.5
New Linecode.LC_MRT_TRF_1_4943A_1 nphases=1 basefreq=60 r1=15000 x1=0 units=km normamps=0
New Linecode.LC_MRT_TRF_1_4943A_2 nphases=2 basefreq=60 r1=15000 x1=0 units=km normamps=0
New Linecode.LC_MRT_TRF_1_4943A_3 nphases=3 basefreq=60 r1=15000 x1=0 units=km normamps=0
New Linecode.LC_MRT_TRF_1_4943A_4 nphases=4 basefreq=60 r1=15000 x1=0 units=km normamps=0
New Line.Resist_MTR_TRF_1_4943A phases=1 bus1=245581.1 bus2= MRT_245581TRF_1_4943A.1 linecode=LC_MRT_TRF_1_4943A_1 length=0.001 units=km
New Reactor.TRF_1_4943A_R phases=1 bus1=ET1_4943.4 R=15 X=0 basefreq=60
New Transformer.TRF_1_497A phases=1 windings=3 buses=[245731.1.2 ET1_497.1.4 ET1_497.4.2] conns=[Delta Wye Wye] kvs=[23.1 0.22 0.22] kvas=[15 15 15] %loadloss=1.933333 %noloadloss=0.5
New Reactor.TRF_1_497A_R phases=1 bus1=ET1_497.4 R=15 X=0 basefreq=60
New Transformer.TRF_17_1077A phases=1 windings=3 buses=[MRT_284551TRF_17_1077A.1 ET17_1077.1.4 ET17_1077.4.2] conns=[Wye Wye Wye] kvs=[13.3367912182804 0.22 0.22] kvas=[15 15 15] %loadloss=1.766667 %noloadloss=0.433333
New Linecode.LC_MRT_TRF_17_1077A_1 nphases=1 basefreq=60 r1=15000 x1=0 units=km normamps=0
New Linecode.LC_MRT_TRF_17_1077A_2 nphases=2 basefreq=60 r1=15000 x1=0 units=km normamps=0
New Linecode.LC_MRT_TRF_17_1077A_3 nphases=3 basefreq=60 r1=15000 x1=0 units=km normamps=0
New Linecode.LC_MRT_TRF_17_1077A_4 nphases=4 basefreq=60 r1=15000 x1=0 units=km normamps=0
New Line.Resist_MTR_TRF_17_1077A phases=1 bus1=284551.1 bus2= MRT_284551TRF_17_1077A.1 linecode=LC_MRT_TRF_17_1077A_1 length=0.001 units=km
New Reactor.TRF_17_1077A_R phases=1 bus1=ET17_1077.4 R=15 X=0 basefreq=60
New Transformer.TRF_17_1078A phases=1 windings=3 buses=[MRT_285541TRF_17_1078A.1 ET17_1078.1.4 ET17_1078.4.2] conns=[Wye Wye Wye] kvs=[13.3367912182804 0.22 0.22] kvas=[15 15 15] %loadloss=1.766667 %noloadloss=0.433333
New Linecode.LC_MRT_TRF_17_1078A_1 nphases=1 basefreq=60 r1=15000 x1=0 units=km normamps=0
New Linecode.LC_MRT_TRF_17_1078A_2 nphases=2 basefreq=60 r1=15000 x1=0 units=km normamps=0
New Linecode.LC_MRT_TRF_17_1078A_3 nphases=3 basefreq=60 r1=15000 x1=0 units=km normamps=0
New Linecode.LC_MRT_TRF_17_1078A_4 nphases=4 basefreq=60 r1=15000 x1=0 units=km normamps=0
New Line.Resist_MTR_TRF_17_1078A phases=1 bus1=285541.1 bus2= MRT_285541TRF_17_1078A.1 linecode=LC_MRT_TRF_17_1078A_1 length=0.001 units=km
New Reactor.TRF_17_1078A_R phases=1 bus1=ET17_1078.4 R=15 X=0 basefreq=60
New Transformer.TRF_17_1080A phases=1 windings=3 buses=[MRT_678181TRF_17_1080A.3 ET17_1080.1.4 ET17_1080.4.2] conns=[Wye Wye Wye] kvs=[13.3367912182804 0.22 0.22] kvas=[10 10 10] %loadloss=1.95 %noloadloss=0.5
New Linecode.LC_MRT_TRF_17_1080A_1 nphases=1 basefreq=60 r1=15000 x1=0 units=km normamps=0
New Linecode.LC_MRT_TRF_17_1080A_2 nphases=2 basefreq=60 r1=15000 x1=0 units=km normamps=0
New Linecode.LC_MRT_TRF_17_1080A_3 nphases=3 basefreq=60 r1=15000 x1=0 units=km normamps=0
New Linecode.LC_MRT_TRF_17_1080A_4 nphases=4 basefreq=60 r1=15000 x1=0 units=km normamps=0
New Line.Resist_MTR_TRF_17_1080A phases=1 bus1=678181.3 bus2= MRT_678181TRF_17_1080A.3 linecode=LC_MRT_TRF_17_1080A_1 length=0.001 units=km
New Reactor.TRF_17_1080A_R phases=1 bus1=ET17_1080.4 R=15 X=0 basefreq=60
New Transformer.TRF_17_1081A phases=1 windings=3 buses=[MRT_251841TRF_17_1081A.2 ET17_1081.1.4 ET17_1081.4.2] conns=[Wye Wye Wye] kvs=[13.3367912182804 0.22 0.22] kvas=[15 15 15] %loadloss=1.766667 %noloadloss=0.433333
New Linecode.LC_MRT_TRF_17_1081A_1 nphases=1 basefreq=60 r1=15000 x1=0 units=km normamps=0
New Linecode.LC_MRT_TRF_17_1081A_2 nphases=2 basefreq=60 r1=15000 x1=0 units=km normamps=0
New Linecode.LC_MRT_TRF_17_1081A_3 nphases=3 basefreq=60 r1=15000 x1=0 units=km normamps=0
New Linecode.LC_MRT_TRF_17_1081A_4 nphases=4 basefreq=60 r1=15000 x1=0 units=km normamps=0
New Line.Resist_MTR_TRF_17_1081A phases=1 bus1=251841.2 bus2= MRT_251841TRF_17_1081A.2 linecode=LC_MRT_TRF_17_1081A_1 length=0.001 units=km
New Reactor.TRF_17_1081A_R phases=1 bus1=ET17_1081.4 R=15 X=0 basefreq=60
New Transformer.TRF_17_1082A phases=1 windings=3 buses=[MRT_282721TRF_17_1082A.3 ET17_1082.1.4 ET17_1082.4.2] conns=[Wye Wye Wye] kvs=[13.3367912182804 0.22 0.22] kvas=[10 10 10] %loadloss=1.95 %noloadloss=0.5
New Linecode.LC_MRT_TRF_17_1082A_1 nphases=1 basefreq=60 r1=15000 x1=0 units=km normamps=0
New Linecode.LC_MRT_TRF_17_1082A_2 nphases=2 basefreq=60 r1=15000 x1=0 units=km normamps=0
New Linecode.LC_MRT_TRF_17_1082A_3 nphases=3 basefreq=60 r1=15000 x1=0 units=km normamps=0
New Linecode.LC_MRT_TRF_17_1082A_4 nphases=4 basefreq=60 r1=15000 x1=0 units=km normamps=0
New Line.Resist_MTR_TRF_17_1082A phases=1 bus1=282721.3 bus2= MRT_282721TRF_17_1082A.3 linecode=LC_MRT_TRF_17_1082A_1 length=0.001 units=km
New Reactor.TRF_17_1082A_R phases=1 bus1=ET17_1082.4 R=15 X=0 basefreq=60
New Transformer.TRF_17_1115A phases=1 windings=3 buses=[MRT_272701TRF_17_1115A.1 ET17_1115.1.4 ET17_1115.4.2] conns=[Wye Wye Wye] kvs=[13.3367912182804 0.22 0.22] kvas=[10 10 10] %loadloss=1.95 %noloadloss=0.5
New Linecode.LC_MRT_TRF_17_1115A_1 nphases=1 basefreq=60 r1=15000 x1=0 units=km normamps=0
New Linecode.LC_MRT_TRF_17_1115A_2 nphases=2 basefreq=60 r1=15000 x1=0 units=km normamps=0
New Linecode.LC_MRT_TRF_17_1115A_3 nphases=3 basefreq=60 r1=15000 x1=0 units=km normamps=0
New Linecode.LC_MRT_TRF_17_1115A_4 nphases=4 basefreq=60 r1=15000 x1=0 units=km normamps=0
New Line.Resist_MTR_TRF_17_1115A phases=1 bus1=272701.1 bus2= MRT_272701TRF_17_1115A.1 linecode=LC_MRT_TRF_17_1115A_1 length=0.001 units=km
New Reactor.TRF_17_1115A_R phases=1 bus1=ET17_1115.4 R=15 X=0 basefreq=60
New Transformer.TRF_17_1116A phases=1 windings=3 buses=[MRT_250001TRF_17_1116A.1 ET17_1116.1.4 ET17_1116.4.2] conns=[Wye Wye Wye] kvs=[13.3367912182804 0.22 0.22] kvas=[15 15 15] %loadloss=1.766667 %noloadloss=0.433333
New Linecode.LC_MRT_TRF_17_1116A_1 nphases=1 basefreq=60 r1=15000 x1=0 units=km normamps=0
New Linecode.LC_MRT_TRF_17_1116A_2 nphases=2 basefreq=60 r1=15000 x1=0 units=km normamps=0
New Linecode.LC_MRT_TRF_17_1116A_3 nphases=3 basefreq=60 r1=15000 x1=0 units=km normamps=0
New Linecode.LC_MRT_TRF_17_1116A_4 nphases=4 basefreq=60 r1=15000 x1=0 units=km normamps=0
New Line.Resist_MTR_TRF_17_1116A phases=1 bus1=250001.1 bus2= MRT_250001TRF_17_1116A.1 linecode=LC_MRT_TRF_17_1116A_1 length=0.001 units=km
New Reactor.TRF_17_1116A_R phases=1 bus1=ET17_1116.4 R=15 X=0 basefreq=60
New Transformer.TRF_17_1283A phases=3 windings=2 buses=[786521.1.2.3 ET17_1283.1.2.3.4] conns=[Delta Wye] kvs=[23.1 0.38] kvas=[30 30] %loadloss=2.1 %noloadloss=0.533333
New Reactor.TRF_17_1283A_R phases=1 bus1=ET17_1283.4 R=15 X=0 basefreq=60
New Transformer.TRF_17_1509A phases=1 windings=3 buses=[MRT_376331TRF_17_1509A.1 ET17_1509.1.4 ET17_1509.4.2] conns=[Wye Wye Wye] kvs=[13.3367912182804 0.22 0.22] kvas=[10 10 10] %loadloss=1.95 %noloadloss=0.5
New Linecode.LC_MRT_TRF_17_1509A_1 nphases=1 basefreq=60 r1=15000 x1=0 units=km normamps=0
New Linecode.LC_MRT_TRF_17_1509A_2 nphases=2 basefreq=60 r1=15000 x1=0 units=km normamps=0
New Linecode.LC_MRT_TRF_17_1509A_3 nphases=3 basefreq=60 r1=15000 x1=0 units=km normamps=0
New Linecode.LC_MRT_TRF_17_1509A_4 nphases=4 basefreq=60 r1=15000 x1=0 units=km normamps=0
New Line.Resist_MTR_TRF_17_1509A phases=1 bus1=376331.1 bus2= MRT_376331TRF_17_1509A.1 linecode=LC_MRT_TRF_17_1509A_1 length=0.001 units=km
New Reactor.TRF_17_1509A_R phases=1 bus1=ET17_1509.4 R=15 X=0 basefreq=60
New Transformer.TRF_17_1590A phases=1 windings=3 buses=[MRT_761651TRF_17_1590A.1 ET17_1590.1.4 ET17_1590.4.2] conns=[Wye Wye Wye] kvs=[13.3367912182804 0.22 0.22] kvas=[25 25 25] %loadloss=1.56 %noloadloss=0.36
New Linecode.LC_MRT_TRF_17_1590A_1 nphases=1 basefreq=60 r1=15000 x1=0 units=km normamps=0
New Linecode.LC_MRT_TRF_17_1590A_2 nphases=2 basefreq=60 r1=15000 x1=0 units=km normamps=0
New Linecode.LC_MRT_TRF_17_1590A_3 nphases=3 basefreq=60 r1=15000 x1=0 units=km normamps=0
New Linecode.LC_MRT_TRF_17_1590A_4 nphases=4 basefreq=60 r1=15000 x1=0 units=km normamps=0
New Line.Resist_MTR_TRF_17_1590A phases=1 bus1=761651.1 bus2= MRT_761651TRF_17_1590A.1 linecode=LC_MRT_TRF_17_1590A_1 length=0.001 units=km
New Reactor.TRF_17_1590A_R phases=1 bus1=ET17_1590.4 R=15 X=0 basefreq=60
New Transformer.TRF_17_1663A phases=1 windings=3 buses=[MRT_296311TRF_17_1663A.2 ET17_1663.1.4 ET17_1663.4.2] conns=[Wye Wye Wye] kvs=[13.3367912182804 0.22 0.22] kvas=[15 15 15] %loadloss=1.766667 %noloadloss=0.433333
New Linecode.LC_MRT_TRF_17_1663A_1 nphases=1 basefreq=60 r1=15000 x1=0 units=km normamps=0
New Linecode.LC_MRT_TRF_17_1663A_2 nphases=2 basefreq=60 r1=15000 x1=0 units=km normamps=0
New Linecode.LC_MRT_TRF_17_1663A_3 nphases=3 basefreq=60 r1=15000 x1=0 units=km normamps=0
New Linecode.LC_MRT_TRF_17_1663A_4 nphases=4 basefreq=60 r1=15000 x1=0 units=km normamps=0
New Line.Resist_MTR_TRF_17_1663A phases=1 bus1=296311.2 bus2= MRT_296311TRF_17_1663A.2 linecode=LC_MRT_TRF_17_1663A_1 length=0.001 units=km
New Reactor.TRF_17_1663A_R phases=1 bus1=ET17_1663.4 R=15 X=0 basefreq=60
New Transformer.TRF_17_1670A phases=1 windings=3 buses=[MRT_270961TRF_17_1670A.2 ET17_1670.1.4 ET17_1670.4.2] conns=[Wye Wye Wye] kvs=[13.3367912182804 0.22 0.22] kvas=[10 10 10] %loadloss=1.95 %noloadloss=0.5
New Linecode.LC_MRT_TRF_17_1670A_1 nphases=1 basefreq=60 r1=15000 x1=0 units=km normamps=0
New Linecode.LC_MRT_TRF_17_1670A_2 nphases=2 basefreq=60 r1=15000 x1=0 units=km normamps=0
New Linecode.LC_MRT_TRF_17_1670A_3 nphases=3 basefreq=60 r1=15000 x1=0 units=km normamps=0
New Linecode.LC_MRT_TRF_17_1670A_4 nphases=4 basefreq=60 r1=15000 x1=0 units=km normamps=0
New Line.Resist_MTR_TRF_17_1670A phases=1 bus1=270961.2 bus2= MRT_270961TRF_17_1670A.2 linecode=LC_MRT_TRF_17_1670A_1 length=0.001 units=km
New Reactor.TRF_17_1670A_R phases=1 bus1=ET17_1670.4 R=15 X=0 basefreq=60
New Transformer.TRF_17_1714A phases=1 windings=3 buses=[MRT_232741TRF_17_1714A.2 ET17_1714.1.4 ET17_1714.4.2] conns=[Wye Wye Wye] kvs=[13.3367912182804 0.22 0.22] kvas=[25 25 25] %loadloss=1.56 %noloadloss=0.36
New Linecode.LC_MRT_TRF_17_1714A_1 nphases=1 basefreq=60 r1=15000 x1=0 units=km normamps=0
New Linecode.LC_MRT_TRF_17_1714A_2 nphases=2 basefreq=60 r1=15000 x1=0 units=km normamps=0
New Linecode.LC_MRT_TRF_17_1714A_3 nphases=3 basefreq=60 r1=15000 x1=0 units=km normamps=0
New Linecode.LC_MRT_TRF_17_1714A_4 nphases=4 basefreq=60 r1=15000 x1=0 units=km normamps=0
New Line.Resist_MTR_TRF_17_1714A phases=1 bus1=232741.2 bus2= MRT_232741TRF_17_1714A.2 linecode=LC_MRT_TRF_17_1714A_1 length=0.001 units=km
New Reactor.TRF_17_1714A_R phases=1 bus1=ET17_1714.4 R=15 X=0 basefreq=60
New Transformer.TRF_17_1757A phases=3 windings=2 buses=[748901.1.2.3 ET17_1757.1.2.3.4] conns=[Delta Wye] kvs=[23.1 0.38] kvas=[30 30] %loadloss=2.1 %noloadloss=0.533333
New Reactor.TRF_17_1757A_R phases=1 bus1=ET17_1757.4 R=15 X=0 basefreq=60
New Transformer.TRF_17_1823A phases=3 windings=2 buses=[792641.1.2.3 ET17_1823.1.2.3.4] conns=[Delta Wye] kvs=[23.1 0.38] kvas=[15 15] %loadloss=2.5 %noloadloss=0.633333
New Reactor.TRF_17_1823A_R phases=1 bus1=ET17_1823.4 R=15 X=0 basefreq=60
New Transformer.TRF_17_1843A phases=1 windings=3 buses=[MRT_786761TRF_17_1843A.1 ET17_1843.1.4 ET17_1843.4.2] conns=[Wye Wye Wye] kvs=[13.3367912182804 0.22 0.22] kvas=[15 15 15] %loadloss=1.766667 %noloadloss=0.433333
New Linecode.LC_MRT_TRF_17_1843A_1 nphases=1 basefreq=60 r1=15000 x1=0 units=km normamps=0
New Linecode.LC_MRT_TRF_17_1843A_2 nphases=2 basefreq=60 r1=15000 x1=0 units=km normamps=0
New Linecode.LC_MRT_TRF_17_1843A_3 nphases=3 basefreq=60 r1=15000 x1=0 units=km normamps=0
New Linecode.LC_MRT_TRF_17_1843A_4 nphases=4 basefreq=60 r1=15000 x1=0 units=km normamps=0
New Line.Resist_MTR_TRF_17_1843A phases=1 bus1=786761.1 bus2= MRT_786761TRF_17_1843A.1 linecode=LC_MRT_TRF_17_1843A_1 length=0.001 units=km
New Reactor.TRF_17_1843A_R phases=1 bus1=ET17_1843.4 R=15 X=0 basefreq=60
New Transformer.TRF_17_2014A phases=3 windings=2 buses=[261901.1.2.3 ET17_2014.1.2.3.4] conns=[Delta Wye] kvs=[23.1 0.38] kvas=[30 30] %loadloss=2.1 %noloadloss=0.533333
New Reactor.TRF_17_2014A_R phases=1 bus1=ET17_2014.4 R=15 X=0 basefreq=60
New Transformer.TRF_17_2128A phases=1 windings=3 buses=[MRT_678871TRF_17_2128A.3 ET17_2128.1.4 ET17_2128.4.2] conns=[Wye Wye Wye] kvs=[13.3367912182804 0.22 0.22] kvas=[10 10 10] %loadloss=1.95 %noloadloss=0.5
New Linecode.LC_MRT_TRF_17_2128A_1 nphases=1 basefreq=60 r1=15000 x1=0 units=km normamps=0
New Linecode.LC_MRT_TRF_17_2128A_2 nphases=2 basefreq=60 r1=15000 x1=0 units=km normamps=0
New Linecode.LC_MRT_TRF_17_2128A_3 nphases=3 basefreq=60 r1=15000 x1=0 units=km normamps=0
New Linecode.LC_MRT_TRF_17_2128A_4 nphases=4 basefreq=60 r1=15000 x1=0 units=km normamps=0
New Line.Resist_MTR_TRF_17_2128A phases=1 bus1=678871.3 bus2= MRT_678871TRF_17_2128A.3 linecode=LC_MRT_TRF_17_2128A_1 length=0.001 units=km
New Reactor.TRF_17_2128A_R phases=1 bus1=ET17_2128.4 R=15 X=0 basefreq=60
New Transformer.TRF_17_2430A phases=1 windings=3 buses=[MRT_309581TRF_17_2430A.2 ET17_2430.1.4 ET17_2430.4.2] conns=[Wye Wye Wye] kvs=[13.3367912182804 0.22 0.22] kvas=[10 10 10] %loadloss=1.95 %noloadloss=0.5
New Linecode.LC_MRT_TRF_17_2430A_1 nphases=1 basefreq=60 r1=15000 x1=0 units=km normamps=0
New Linecode.LC_MRT_TRF_17_2430A_2 nphases=2 basefreq=60 r1=15000 x1=0 units=km normamps=0
New Linecode.LC_MRT_TRF_17_2430A_3 nphases=3 basefreq=60 r1=15000 x1=0 units=km normamps=0
New Linecode.LC_MRT_TRF_17_2430A_4 nphases=4 basefreq=60 r1=15000 x1=0 units=km normamps=0
New Line.Resist_MTR_TRF_17_2430A phases=1 bus1=309581.2 bus2= MRT_309581TRF_17_2430A.2 linecode=LC_MRT_TRF_17_2430A_1 length=0.001 units=km
New Reactor.TRF_17_2430A_R phases=1 bus1=ET17_2430.4 R=15 X=0 basefreq=60
New Transformer.TRF_17_2462A phases=1 windings=3 buses=[MRT_360961TRF_17_2462A.3 ET17_2462.1.4 ET17_2462.4.2] conns=[Wye Wye Wye] kvs=[13.3367912182804 0.22 0.22] kvas=[10 10 10] %loadloss=1.95 %noloadloss=0.5
New Linecode.LC_MRT_TRF_17_2462A_1 nphases=1 basefreq=60 r1=15000 x1=0 units=km normamps=0
New Linecode.LC_MRT_TRF_17_2462A_2 nphases=2 basefreq=60 r1=15000 x1=0 units=km normamps=0
New Linecode.LC_MRT_TRF_17_2462A_3 nphases=3 basefreq=60 r1=15000 x1=0 units=km normamps=0
New Linecode.LC_MRT_TRF_17_2462A_4 nphases=4 basefreq=60 r1=15000 x1=0 units=km normamps=0
New Line.Resist_MTR_TRF_17_2462A phases=1 bus1=360961.3 bus2= MRT_360961TRF_17_2462A.3 linecode=LC_MRT_TRF_17_2462A_1 length=0.001 units=km
New Reactor.TRF_17_2462A_R phases=1 bus1=ET17_2462.4 R=15 X=0 basefreq=60
New Transformer.TRF_17_2504A phases=1 windings=3 buses=[MRT_281041TRF_17_2504A.1 ET17_2504.1.4 ET17_2504.4.2] conns=[Wye Wye Wye] kvs=[13.3367912182804 0.22 0.22] kvas=[25 25 25] %loadloss=1.56 %noloadloss=0.36
New Linecode.LC_MRT_TRF_17_2504A_1 nphases=1 basefreq=60 r1=15000 x1=0 units=km normamps=0
New Linecode.LC_MRT_TRF_17_2504A_2 nphases=2 basefreq=60 r1=15000 x1=0 units=km normamps=0
New Linecode.LC_MRT_TRF_17_2504A_3 nphases=3 basefreq=60 r1=15000 x1=0 units=km normamps=0
New Linecode.LC_MRT_TRF_17_2504A_4 nphases=4 basefreq=60 r1=15000 x1=0 units=km normamps=0
New Line.Resist_MTR_TRF_17_2504A phases=1 bus1=281041.1 bus2= MRT_281041TRF_17_2504A.1 linecode=LC_MRT_TRF_17_2504A_1 length=0.001 units=km
New Reactor.TRF_17_2504A_R phases=1 bus1=ET17_2504.4 R=15 X=0 basefreq=60
New Transformer.TRF_17_26A phases=1 windings=3 buses=[785251.1.2 ET17_26.1.4 ET17_26.4.2] conns=[Delta Wye Wye] kvs=[23.1 0.22 0.22] kvas=[15 15 15] %loadloss=1.933333 %noloadloss=0.5
New Reactor.TRF_17_26A_R phases=1 bus1=ET17_26.4 R=15 X=0 basefreq=60
New Transformer.TRF_17_2608A phases=1 windings=3 buses=[MRT_265551TRF_17_2608A.2 ET17_2608.1.4 ET17_2608.4.2] conns=[Wye Wye Wye] kvs=[13.3367912182804 0.22 0.22] kvas=[15 15 15] %loadloss=1.766667 %noloadloss=0.433333
New Linecode.LC_MRT_TRF_17_2608A_1 nphases=1 basefreq=60 r1=15000 x1=0 units=km normamps=0
New Linecode.LC_MRT_TRF_17_2608A_2 nphases=2 basefreq=60 r1=15000 x1=0 units=km normamps=0
New Linecode.LC_MRT_TRF_17_2608A_3 nphases=3 basefreq=60 r1=15000 x1=0 units=km normamps=0
New Linecode.LC_MRT_TRF_17_2608A_4 nphases=4 basefreq=60 r1=15000 x1=0 units=km normamps=0
New Line.Resist_MTR_TRF_17_2608A phases=1 bus1=265551.2 bus2= MRT_265551TRF_17_2608A.2 linecode=LC_MRT_TRF_17_2608A_1 length=0.001 units=km
New Reactor.TRF_17_2608A_R phases=1 bus1=ET17_2608.4 R=15 X=0 basefreq=60
New Transformer.TRF_17_2624A phases=1 windings=3 buses=[MRT_284601TRF_17_2624A.1 ET17_2624.1.4 ET17_2624.4.2] conns=[Wye Wye Wye] kvs=[13.3367912182804 0.22 0.22] kvas=[10 10 10] %loadloss=1.95 %noloadloss=0.5
New Linecode.LC_MRT_TRF_17_2624A_1 nphases=1 basefreq=60 r1=15000 x1=0 units=km normamps=0
New Linecode.LC_MRT_TRF_17_2624A_2 nphases=2 basefreq=60 r1=15000 x1=0 units=km normamps=0
New Linecode.LC_MRT_TRF_17_2624A_3 nphases=3 basefreq=60 r1=15000 x1=0 units=km normamps=0
New Linecode.LC_MRT_TRF_17_2624A_4 nphases=4 basefreq=60 r1=15000 x1=0 units=km normamps=0
New Line.Resist_MTR_TRF_17_2624A phases=1 bus1=284601.1 bus2= MRT_284601TRF_17_2624A.1 linecode=LC_MRT_TRF_17_2624A_1 length=0.001 units=km
New Reactor.TRF_17_2624A_R phases=1 bus1=ET17_2624.4 R=15 X=0 basefreq=60
New Transformer.TRF_17_27A phases=3 windings=2 buses=[785501.1.2.3 ET17_27.1.2.3.4] conns=[Delta Wye] kvs=[23.1 0.38] kvas=[45 45] %loadloss=1.866667 %noloadloss=0.477777
New Reactor.TRF_17_27A_R phases=1 bus1=ET17_27.4 R=15 X=0 basefreq=60
New Transformer.TRF_17_2778A phases=3 windings=2 buses=[280151.1.2.3 ET17_2778.1.2.3.4] conns=[Delta Wye] kvs=[23.1 0.38] kvas=[30 30] %loadloss=2.1 %noloadloss=0.533333
New Reactor.TRF_17_2778A_R phases=1 bus1=ET17_2778.4 R=15 X=0 basefreq=60
New Transformer.TRF_17_2851A phases=1 windings=3 buses=[MRT_346101TRF_17_2851A.3 ET17_2851.1.4 ET17_2851.4.2] conns=[Wye Wye Wye] kvs=[13.3367912182804 0.22 0.22] kvas=[10 10 10] %loadloss=1.95 %noloadloss=0.5
New Linecode.LC_MRT_TRF_17_2851A_1 nphases=1 basefreq=60 r1=15000 x1=0 units=km normamps=0
New Linecode.LC_MRT_TRF_17_2851A_2 nphases=2 basefreq=60 r1=15000 x1=0 units=km normamps=0
New Linecode.LC_MRT_TRF_17_2851A_3 nphases=3 basefreq=60 r1=15000 x1=0 units=km normamps=0
New Linecode.LC_MRT_TRF_17_2851A_4 nphases=4 basefreq=60 r1=15000 x1=0 units=km normamps=0
New Line.Resist_MTR_TRF_17_2851A phases=1 bus1=346101.3 bus2= MRT_346101TRF_17_2851A.3 linecode=LC_MRT_TRF_17_2851A_1 length=0.001 units=km
New Reactor.TRF_17_2851A_R phases=1 bus1=ET17_2851.4 R=15 X=0 basefreq=60
New Transformer.TRF_17_290A phases=1 windings=3 buses=[MRT_242471TRF_17_290A.2 ET17_290.1.4 ET17_290.4.2] conns=[Wye Wye Wye] kvs=[13.3367912182804 0.22 0.22] kvas=[10 10 10] %loadloss=1.95 %noloadloss=0.5
New Linecode.LC_MRT_TRF_17_290A_1 nphases=1 basefreq=60 r1=15000 x1=0 units=km normamps=0
New Linecode.LC_MRT_TRF_17_290A_2 nphases=2 basefreq=60 r1=15000 x1=0 units=km normamps=0
New Linecode.LC_MRT_TRF_17_290A_3 nphases=3 basefreq=60 r1=15000 x1=0 units=km normamps=0
New Linecode.LC_MRT_TRF_17_290A_4 nphases=4 basefreq=60 r1=15000 x1=0 units=km normamps=0
New Line.Resist_MTR_TRF_17_290A phases=1 bus1=242471.2 bus2= MRT_242471TRF_17_290A.2 linecode=LC_MRT_TRF_17_290A_1 length=0.001 units=km
New Reactor.TRF_17_290A_R phases=1 bus1=ET17_290.4 R=15 X=0 basefreq=60
New Transformer.TRF_17_2930A phases=1 windings=3 buses=[MRT_249071TRF_17_2930A.1 ET17_2930.1.4 ET17_2930.4.2] conns=[Wye Wye Wye] kvs=[13.3367912182804 0.22 0.22] kvas=[10 10 10] %loadloss=1.95 %noloadloss=0.5
New Linecode.LC_MRT_TRF_17_2930A_1 nphases=1 basefreq=60 r1=15000 x1=0 units=km normamps=0
New Linecode.LC_MRT_TRF_17_2930A_2 nphases=2 basefreq=60 r1=15000 x1=0 units=km normamps=0
New Linecode.LC_MRT_TRF_17_2930A_3 nphases=3 basefreq=60 r1=15000 x1=0 units=km normamps=0
New Linecode.LC_MRT_TRF_17_2930A_4 nphases=4 basefreq=60 r1=15000 x1=0 units=km normamps=0
New Line.Resist_MTR_TRF_17_2930A phases=1 bus1=249071.1 bus2= MRT_249071TRF_17_2930A.1 linecode=LC_MRT_TRF_17_2930A_1 length=0.001 units=km
New Reactor.TRF_17_2930A_R phases=1 bus1=ET17_2930.4 R=15 X=0 basefreq=60
New Transformer.TRF_17_2932A phases=3 windings=2 buses=[685001.1.2.3 ET17_2932.1.2.3.4] conns=[Delta Wye] kvs=[23.1 0.38] kvas=[45 45] %loadloss=1.866667 %noloadloss=0.477777
New Reactor.TRF_17_2932A_R phases=1 bus1=ET17_2932.4 R=15 X=0 basefreq=60
New Transformer.TRF_17_2937A phases=1 windings=3 buses=[MRT_281981TRF_17_2937A.2 ET17_2937.1.4 ET17_2937.4.2] conns=[Wye Wye Wye] kvs=[13.3367912182804 0.22 0.22] kvas=[10 10 10] %loadloss=1.95 %noloadloss=0.5
New Linecode.LC_MRT_TRF_17_2937A_1 nphases=1 basefreq=60 r1=15000 x1=0 units=km normamps=0
New Linecode.LC_MRT_TRF_17_2937A_2 nphases=2 basefreq=60 r1=15000 x1=0 units=km normamps=0
New Linecode.LC_MRT_TRF_17_2937A_3 nphases=3 basefreq=60 r1=15000 x1=0 units=km normamps=0
New Linecode.LC_MRT_TRF_17_2937A_4 nphases=4 basefreq=60 r1=15000 x1=0 units=km normamps=0
New Line.Resist_MTR_TRF_17_2937A phases=1 bus1=281981.2 bus2= MRT_281981TRF_17_2937A.2 linecode=LC_MRT_TRF_17_2937A_1 length=0.001 units=km
New Reactor.TRF_17_2937A_R phases=1 bus1=ET17_2937.4 R=15 X=0 basefreq=60
New Transformer.TRF_17_2948A phases=1 windings=3 buses=[MRT_742741TRF_17_2948A.2 ET17_2948.1.4 ET17_2948.4.2] conns=[Wye Wye Wye] kvs=[13.3367912182804 0.22 0.22] kvas=[37.5 37.5 37.5] %loadloss=1.413333 %noloadloss=0.36
New Linecode.LC_MRT_TRF_17_2948A_1 nphases=1 basefreq=60 r1=15000 x1=0 units=km normamps=0
New Linecode.LC_MRT_TRF_17_2948A_2 nphases=2 basefreq=60 r1=15000 x1=0 units=km normamps=0
New Linecode.LC_MRT_TRF_17_2948A_3 nphases=3 basefreq=60 r1=15000 x1=0 units=km normamps=0
New Linecode.LC_MRT_TRF_17_2948A_4 nphases=4 basefreq=60 r1=15000 x1=0 units=km normamps=0
New Line.Resist_MTR_TRF_17_2948A phases=1 bus1=742741.2 bus2= MRT_742741TRF_17_2948A.2 linecode=LC_MRT_TRF_17_2948A_1 length=0.001 units=km
New Reactor.TRF_17_2948A_R phases=1 bus1=ET17_2948.4 R=15 X=0 basefreq=60
New Transformer.TRF_17_3187A phases=1 windings=3 buses=[MRT_477141TRF_17_3187A.2 ET17_3187.1.4 ET17_3187.4.2] conns=[Wye Wye Wye] kvs=[13.3367912182804 0.22 0.22] kvas=[10 10 10] %loadloss=1.95 %noloadloss=0.5
New Linecode.LC_MRT_TRF_17_3187A_1 nphases=1 basefreq=60 r1=15000 x1=0 units=km normamps=0
New Linecode.LC_MRT_TRF_17_3187A_2 nphases=2 basefreq=60 r1=15000 x1=0 units=km normamps=0
New Linecode.LC_MRT_TRF_17_3187A_3 nphases=3 basefreq=60 r1=15000 x1=0 units=km normamps=0
New Linecode.LC_MRT_TRF_17_3187A_4 nphases=4 basefreq=60 r1=15000 x1=0 units=km normamps=0
New Line.Resist_MTR_TRF_17_3187A phases=1 bus1=477141.2 bus2= MRT_477141TRF_17_3187A.2 linecode=LC_MRT_TRF_17_3187A_1 length=0.001 units=km
New Reactor.TRF_17_3187A_R phases=1 bus1=ET17_3187.4 R=15 X=0 basefreq=60
New Transformer.TRF_17_3292A phases=3 windings=2 buses=[299832.1.2.3 ET17_3292.1.2.3.4] conns=[Delta Wye] kvs=[23.1 0.38] kvas=[45 45] %loadloss=1.866667 %noloadloss=0.477777
New Reactor.TRF_17_3292A_R phases=1 bus1=ET17_3292.4 R=15 X=0 basefreq=60
New Transformer.TRF_17_3337A phases=3 windings=2 buses=[497581.1.2.3 ET17_3337.1.2.3.4] conns=[Delta Wye] kvs=[23.1 0.38] kvas=[30 30] %loadloss=2.1 %noloadloss=0.533333
New Reactor.TRF_17_3337A_R phases=1 bus1=ET17_3337.4 R=15 X=0 basefreq=60
New Transformer.TRF_17_3410A phases=1 windings=3 buses=[MRT_622191TRF_17_3410A.2 ET17_3410.1.4 ET17_3410.4.2] conns=[Wye Wye Wye] kvs=[13.3367912182804 0.22 0.22] kvas=[10 10 10] %loadloss=1.95 %noloadloss=0.5
New Linecode.LC_MRT_TRF_17_3410A_1 nphases=1 basefreq=60 r1=15000 x1=0 units=km normamps=0
New Linecode.LC_MRT_TRF_17_3410A_2 nphases=2 basefreq=60 r1=15000 x1=0 units=km normamps=0
New Linecode.LC_MRT_TRF_17_3410A_3 nphases=3 basefreq=60 r1=15000 x1=0 units=km normamps=0
New Linecode.LC_MRT_TRF_17_3410A_4 nphases=4 basefreq=60 r1=15000 x1=0 units=km normamps=0
New Line.Resist_MTR_TRF_17_3410A phases=1 bus1=622191.2 bus2= MRT_622191TRF_17_3410A.2 linecode=LC_MRT_TRF_17_3410A_1 length=0.001 units=km
New Reactor.TRF_17_3410A_R phases=1 bus1=ET17_3410.4 R=15 X=0 basefreq=60
New Transformer.TRF_17_3448A phases=3 windings=2 buses=[622471.1.2.3 ET17_3448.1.2.3.4] conns=[Delta Wye] kvs=[23.1 0.38] kvas=[15 15] %loadloss=2.5 %noloadloss=0.633333
New Reactor.TRF_17_3448A_R phases=1 bus1=ET17_3448.4 R=15 X=0 basefreq=60
New Transformer.TRF_17_3466A phases=3 windings=2 buses=[474732.1.2.3 ET17_3466.1.2.3.4] conns=[Delta Wye] kvs=[23.1 0.38] kvas=[45 45] %loadloss=1.866667 %noloadloss=0.477777
New Reactor.TRF_17_3466A_R phases=1 bus1=ET17_3466.4 R=15 X=0 basefreq=60
New Transformer.TRF_17_3467A phases=3 windings=2 buses=[478452.1.2.3 ET17_3467.1.2.3.4] conns=[Delta Wye] kvs=[23.1 0.38] kvas=[30 30] %loadloss=2.1 %noloadloss=0.533333
New Reactor.TRF_17_3467A_R phases=1 bus1=ET17_3467.4 R=15 X=0 basefreq=60
New Transformer.TRF_17_3503A phases=1 windings=3 buses=[MRT_270021TRF_17_3503A.2 ET17_3503.1.4 ET17_3503.4.2] conns=[Wye Wye Wye] kvs=[13.3367912182804 0.22 0.22] kvas=[10 10 10] %loadloss=1.95 %noloadloss=0.5
New Linecode.LC_MRT_TRF_17_3503A_1 nphases=1 basefreq=60 r1=15000 x1=0 units=km normamps=0
New Linecode.LC_MRT_TRF_17_3503A_2 nphases=2 basefreq=60 r1=15000 x1=0 units=km normamps=0
New Linecode.LC_MRT_TRF_17_3503A_3 nphases=3 basefreq=60 r1=15000 x1=0 units=km normamps=0
New Linecode.LC_MRT_TRF_17_3503A_4 nphases=4 basefreq=60 r1=15000 x1=0 units=km normamps=0
New Line.Resist_MTR_TRF_17_3503A phases=1 bus1=270021.2 bus2= MRT_270021TRF_17_3503A.2 linecode=LC_MRT_TRF_17_3503A_1 length=0.001 units=km
New Reactor.TRF_17_3503A_R phases=1 bus1=ET17_3503.4 R=15 X=0 basefreq=60
New Transformer.TRF_17_3511A phases=1 windings=3 buses=[584231.2.3 ET17_3511.1.4 ET17_3511.4.2] conns=[Delta Wye Wye] kvs=[23.1 0.22 0.22] kvas=[15 15 15] %loadloss=1.933333 %noloadloss=0.5
New Reactor.TRF_17_3511A_R phases=1 bus1=ET17_3511.4 R=15 X=0 basefreq=60
New Transformer.TRF_17_36A phases=3 windings=2 buses=[788551.1.2.3 ET17_36.1.2.3.4] conns=[Delta Wye] kvs=[23.1 0.38] kvas=[45 45] %loadloss=1.866667 %noloadloss=0.477777
New Reactor.TRF_17_36A_R phases=1 bus1=ET17_36.4 R=15 X=0 basefreq=60
New Transformer.TRF_17_3693A phases=3 windings=2 buses=[606481.1.2.3 ET17_3693.1.2.3.4] conns=[Delta Wye] kvs=[23.1 0.38] kvas=[30 30] %loadloss=2.1 %noloadloss=0.533333
New Reactor.TRF_17_3693A_R phases=1 bus1=ET17_3693.4 R=15 X=0 basefreq=60
New Transformer.TRF_17_37A phases=3 windings=2 buses=[232951.1.2.3 ET17_37.1.2.3.4] conns=[Delta Wye] kvs=[23.1 0.38] kvas=[30 30] %loadloss=2.1 %noloadloss=0.533333
New Reactor.TRF_17_37A_R phases=1 bus1=ET17_37.4 R=15 X=0 basefreq=60
New Transformer.TRF_17_3765A phases=1 windings=3 buses=[MRT_346151TRF_17_3765A.3 ET17_3765.1.4 ET17_3765.4.2] conns=[Wye Wye Wye] kvs=[13.3367912182804 0.22 0.22] kvas=[10 10 10] %loadloss=1.95 %noloadloss=0.5
New Linecode.LC_MRT_TRF_17_3765A_1 nphases=1 basefreq=60 r1=15000 x1=0 units=km normamps=0
New Linecode.LC_MRT_TRF_17_3765A_2 nphases=2 basefreq=60 r1=15000 x1=0 units=km normamps=0
New Linecode.LC_MRT_TRF_17_3765A_3 nphases=3 basefreq=60 r1=15000 x1=0 units=km normamps=0
New Linecode.LC_MRT_TRF_17_3765A_4 nphases=4 basefreq=60 r1=15000 x1=0 units=km normamps=0
New Line.Resist_MTR_TRF_17_3765A phases=1 bus1=346151.3 bus2= MRT_346151TRF_17_3765A.3 linecode=LC_MRT_TRF_17_3765A_1 length=0.001 units=km
New Reactor.TRF_17_3765A_R phases=1 bus1=ET17_3765.4 R=15 X=0 basefreq=60
New Transformer.TRF_17_3776A phases=1 windings=3 buses=[MRT_625211TRF_17_3776A.1 ET17_3776.1.4 ET17_3776.4.2] conns=[Wye Wye Wye] kvs=[13.3367912182804 0.22 0.22] kvas=[10 10 10] %loadloss=1.95 %noloadloss=0.5
New Linecode.LC_MRT_TRF_17_3776A_1 nphases=1 basefreq=60 r1=15000 x1=0 units=km normamps=0
New Linecode.LC_MRT_TRF_17_3776A_2 nphases=2 basefreq=60 r1=15000 x1=0 units=km normamps=0
New Linecode.LC_MRT_TRF_17_3776A_3 nphases=3 basefreq=60 r1=15000 x1=0 units=km normamps=0
New Linecode.LC_MRT_TRF_17_3776A_4 nphases=4 basefreq=60 r1=15000 x1=0 units=km normamps=0
New Line.Resist_MTR_TRF_17_3776A phases=1 bus1=625211.1 bus2= MRT_625211TRF_17_3776A.1 linecode=LC_MRT_TRF_17_3776A_1 length=0.001 units=km
New Reactor.TRF_17_3776A_R phases=1 bus1=ET17_3776.4 R=15 X=0 basefreq=60
New Transformer.TRF_17_3778A phases=1 windings=3 buses=[MRT_280911TRF_17_3778A.1 ET17_3778.1.4 ET17_3778.4.2] conns=[Wye Wye Wye] kvs=[13.3367912182804 0.22 0.22] kvas=[25 25 25] %loadloss=1.56 %noloadloss=0.36
New Linecode.LC_MRT_TRF_17_3778A_1 nphases=1 basefreq=60 r1=15000 x1=0 units=km normamps=0
New Linecode.LC_MRT_TRF_17_3778A_2 nphases=2 basefreq=60 r1=15000 x1=0 units=km normamps=0
New Linecode.LC_MRT_TRF_17_3778A_3 nphases=3 basefreq=60 r1=15000 x1=0 units=km normamps=0
New Linecode.LC_MRT_TRF_17_3778A_4 nphases=4 basefreq=60 r1=15000 x1=0 units=km normamps=0
New Line.Resist_MTR_TRF_17_3778A phases=1 bus1=280911.1 bus2= MRT_280911TRF_17_3778A.1 linecode=LC_MRT_TRF_17_3778A_1 length=0.001 units=km
New Reactor.TRF_17_3778A_R phases=1 bus1=ET17_3778.4 R=15 X=0 basefreq=60
New Transformer.TRF_17_3876A phases=3 windings=2 buses=[421841.1.2.3 ET17_3876.1.2.3.4] conns=[Delta Wye] kvs=[23.1 0.38] kvas=[75 75] %loadloss=3.84 %noloadloss=0.966666
New Reactor.TRF_17_3876A_R phases=1 bus1=ET17_3876.4 R=15 X=0 basefreq=60
New Transformer.TRF_17_3929A phases=1 windings=3 buses=[MRT_232711TRF_17_3929A.2 ET17_3929.1.4 ET17_3929.4.2] conns=[Wye Wye Wye] kvs=[13.3367912182804 0.22 0.22] kvas=[10 10 10] %loadloss=1.95 %noloadloss=0.5
New Linecode.LC_MRT_TRF_17_3929A_1 nphases=1 basefreq=60 r1=15000 x1=0 units=km normamps=0
New Linecode.LC_MRT_TRF_17_3929A_2 nphases=2 basefreq=60 r1=15000 x1=0 units=km normamps=0
New Linecode.LC_MRT_TRF_17_3929A_3 nphases=3 basefreq=60 r1=15000 x1=0 units=km normamps=0
New Linecode.LC_MRT_TRF_17_3929A_4 nphases=4 basefreq=60 r1=15000 x1=0 units=km normamps=0
New Line.Resist_MTR_TRF_17_3929A phases=1 bus1=232711.2 bus2= MRT_232711TRF_17_3929A.2 linecode=LC_MRT_TRF_17_3929A_1 length=0.001 units=km
New Reactor.TRF_17_3929A_R phases=1 bus1=ET17_3929.4 R=15 X=0 basefreq=60
New Transformer.TRF_17_3994A phases=1 windings=3 buses=[MRT_232601TRF_17_3994A.1 ET17_3994.1.4 ET17_3994.4.2] conns=[Wye Wye Wye] kvs=[13.3367912182804 0.22 0.22] kvas=[25 25 25] %loadloss=1.56 %noloadloss=0.36
New Linecode.LC_MRT_TRF_17_3994A_1 nphases=1 basefreq=60 r1=15000 x1=0 units=km normamps=0
New Linecode.LC_MRT_TRF_17_3994A_2 nphases=2 basefreq=60 r1=15000 x1=0 units=km normamps=0
New Linecode.LC_MRT_TRF_17_3994A_3 nphases=3 basefreq=60 r1=15000 x1=0 units=km normamps=0
New Linecode.LC_MRT_TRF_17_3994A_4 nphases=4 basefreq=60 r1=15000 x1=0 units=km normamps=0
New Line.Resist_MTR_TRF_17_3994A phases=1 bus1=232601.1 bus2= MRT_232601TRF_17_3994A.1 linecode=LC_MRT_TRF_17_3994A_1 length=0.001 units=km
New Reactor.TRF_17_3994A_R phases=1 bus1=ET17_3994.4 R=15 X=0 basefreq=60
New Transformer.TRF_17_4094A phases=3 windings=2 buses=[296191.1.2.3 ET17_4094.1.2.3.4] conns=[Delta Wye] kvs=[23.1 0.38] kvas=[15 15] %loadloss=2.5 %noloadloss=0.633333
New Reactor.TRF_17_4094A_R phases=1 bus1=ET17_4094.4 R=15 X=0 basefreq=60
New Transformer.TRF_17_4114A phases=1 windings=3 buses=[MRT_265531TRF_17_4114A.2 ET17_4114.1.4 ET17_4114.4.2] conns=[Wye Wye Wye] kvs=[13.3367912182804 0.22 0.22] kvas=[5 5 5] %loadloss=2.1 %noloadloss=0.7
New Linecode.LC_MRT_TRF_17_4114A_1 nphases=1 basefreq=60 r1=15000 x1=0 units=km normamps=0
New Linecode.LC_MRT_TRF_17_4114A_2 nphases=2 basefreq=60 r1=15000 x1=0 units=km normamps=0
New Linecode.LC_MRT_TRF_17_4114A_3 nphases=3 basefreq=60 r1=15000 x1=0 units=km normamps=0
New Linecode.LC_MRT_TRF_17_4114A_4 nphases=4 basefreq=60 r1=15000 x1=0 units=km normamps=0
New Line.Resist_MTR_TRF_17_4114A phases=1 bus1=265531.2 bus2= MRT_265531TRF_17_4114A.2 linecode=LC_MRT_TRF_17_4114A_1 length=0.001 units=km
New Reactor.TRF_17_4114A_R phases=1 bus1=ET17_4114.4 R=15 X=0 basefreq=60
New Transformer.TRF_17_4191A phases=1 windings=3 buses=[MRT_31TRF_17_4191A.2 ET17_4191.1.4 ET17_4191.4.2] conns=[Wye Wye Wye] kvs=[13.3367912182804 0.22 0.22] kvas=[10 10 10] %loadloss=1.95 %noloadloss=0.5
New Linecode.LC_MRT_TRF_17_4191A_1 nphases=1 basefreq=60 r1=15000 x1=0 units=km normamps=0
New Linecode.LC_MRT_TRF_17_4191A_2 nphases=2 basefreq=60 r1=15000 x1=0 units=km normamps=0
New Linecode.LC_MRT_TRF_17_4191A_3 nphases=3 basefreq=60 r1=15000 x1=0 units=km normamps=0
New Linecode.LC_MRT_TRF_17_4191A_4 nphases=4 basefreq=60 r1=15000 x1=0 units=km normamps=0
New Line.Resist_MTR_TRF_17_4191A phases=1 bus1=31.2 bus2= MRT_31TRF_17_4191A.2 linecode=LC_MRT_TRF_17_4191A_1 length=0.001 units=km
New Reactor.TRF_17_4191A_R phases=1 bus1=ET17_4191.4 R=15 X=0 basefreq=60
New Transformer.TRF_17_4193A phases=3 windings=2 buses=[667801.1.2.3 ET17_4193.1.2.3.4] conns=[Delta Wye] kvs=[23.1 0.38] kvas=[112.5 112.5] %loadloss=1.475556 %noloadloss=0.377777
New Reactor.TRF_17_4193A_R phases=1 bus1=ET17_4193.4 R=15 X=0 basefreq=60
New Transformer.TRF_17_42A phases=3 windings=2 buses=[252851.1.2.3 ET17_42.1.2.3.4] conns=[Delta Wye] kvs=[23.1 0.38] kvas=[30 30] %loadloss=2.1 %noloadloss=0.533333
New Reactor.TRF_17_42A_R phases=1 bus1=ET17_42.4 R=15 X=0 basefreq=60
New Transformer.TRF_17_4250A phases=1 windings=3 buses=[MRT_656571TRF_17_4250A.1 ET17_4250.1.4 ET17_4250.4.2] conns=[Wye Wye Wye] kvs=[13.3367912182804 0.22 0.22] kvas=[10 10 10] %loadloss=1.95 %noloadloss=0.5
New Linecode.LC_MRT_TRF_17_4250A_1 nphases=1 basefreq=60 r1=15000 x1=0 units=km normamps=0
New Linecode.LC_MRT_TRF_17_4250A_2 nphases=2 basefreq=60 r1=15000 x1=0 units=km normamps=0
New Linecode.LC_MRT_TRF_17_4250A_3 nphases=3 basefreq=60 r1=15000 x1=0 units=km normamps=0
New Linecode.LC_MRT_TRF_17_4250A_4 nphases=4 basefreq=60 r1=15000 x1=0 units=km normamps=0
New Line.Resist_MTR_TRF_17_4250A phases=1 bus1=656571.1 bus2= MRT_656571TRF_17_4250A.1 linecode=LC_MRT_TRF_17_4250A_1 length=0.001 units=km
New Reactor.TRF_17_4250A_R phases=1 bus1=ET17_4250.4 R=15 X=0 basefreq=60
New Transformer.TRF_17_4296A phases=1 windings=3 buses=[MRT_284631TRF_17_4296A.1 ET17_4296.1.4 ET17_4296.4.2] conns=[Wye Wye Wye] kvs=[13.3367912182804 0.22 0.22] kvas=[25 25 25] %loadloss=1.56 %noloadloss=0.36
New Linecode.LC_MRT_TRF_17_4296A_1 nphases=1 basefreq=60 r1=15000 x1=0 units=km normamps=0
New Linecode.LC_MRT_TRF_17_4296A_2 nphases=2 basefreq=60 r1=15000 x1=0 units=km normamps=0
New Linecode.LC_MRT_TRF_17_4296A_3 nphases=3 basefreq=60 r1=15000 x1=0 units=km normamps=0
New Linecode.LC_MRT_TRF_17_4296A_4 nphases=4 basefreq=60 r1=15000 x1=0 units=km normamps=0
New Line.Resist_MTR_TRF_17_4296A phases=1 bus1=284631.1 bus2= MRT_284631TRF_17_4296A.1 linecode=LC_MRT_TRF_17_4296A_1 length=0.001 units=km
New Reactor.TRF_17_4296A_R phases=1 bus1=ET17_4296.4 R=15 X=0 basefreq=60
New Transformer.TRF_17_4306A phases=1 windings=3 buses=[MRT_595141TRF_17_4306A.2 ET17_4306.1.4 ET17_4306.4.2] conns=[Wye Wye Wye] kvs=[13.3367912182804 0.22 0.22] kvas=[10 10 10] %loadloss=1.95 %noloadloss=0.5
New Linecode.LC_MRT_TRF_17_4306A_1 nphases=1 basefreq=60 r1=15000 x1=0 units=km normamps=0
New Linecode.LC_MRT_TRF_17_4306A_2 nphases=2 basefreq=60 r1=15000 x1=0 units=km normamps=0
New Linecode.LC_MRT_TRF_17_4306A_3 nphases=3 basefreq=60 r1=15000 x1=0 units=km normamps=0
New Linecode.LC_MRT_TRF_17_4306A_4 nphases=4 basefreq=60 r1=15000 x1=0 units=km normamps=0
New Line.Resist_MTR_TRF_17_4306A phases=1 bus1=595141.2 bus2= MRT_595141TRF_17_4306A.2 linecode=LC_MRT_TRF_17_4306A_1 length=0.001 units=km
New Reactor.TRF_17_4306A_R phases=1 bus1=ET17_4306.4 R=15 X=0 basefreq=60
New Transformer.TRF_17_4333A phases=1 windings=3 buses=[MRT_614191TRF_17_4333A.1 ET17_4333.1.4 ET17_4333.4.2] conns=[Wye Wye Wye] kvs=[13.3367912182804 0.22 0.22] kvas=[15 15 15] %loadloss=1.766667 %noloadloss=0.433333
New Linecode.LC_MRT_TRF_17_4333A_1 nphases=1 basefreq=60 r1=15000 x1=0 units=km normamps=0
New Linecode.LC_MRT_TRF_17_4333A_2 nphases=2 basefreq=60 r1=15000 x1=0 units=km normamps=0
New Linecode.LC_MRT_TRF_17_4333A_3 nphases=3 basefreq=60 r1=15000 x1=0 units=km normamps=0
New Linecode.LC_MRT_TRF_17_4333A_4 nphases=4 basefreq=60 r1=15000 x1=0 units=km normamps=0
New Line.Resist_MTR_TRF_17_4333A phases=1 bus1=614191.1 bus2= MRT_614191TRF_17_4333A.1 linecode=LC_MRT_TRF_17_4333A_1 length=0.001 units=km
New Reactor.TRF_17_4333A_R phases=1 bus1=ET17_4333.4 R=15 X=0 basefreq=60
New Transformer.TRF_17_4433A phases=1 windings=3 buses=[MRT_228752TRF_17_4433A.1 ET17_4433.1.4 ET17_4433.4.2] conns=[Wye Wye Wye] kvs=[13.3367912182804 0.22 0.22] kvas=[10 10 10] %loadloss=1.95 %noloadloss=0.5
New Linecode.LC_MRT_TRF_17_4433A_1 nphases=1 basefreq=60 r1=15000 x1=0 units=km normamps=0
New Linecode.LC_MRT_TRF_17_4433A_2 nphases=2 basefreq=60 r1=15000 x1=0 units=km normamps=0
New Linecode.LC_MRT_TRF_17_4433A_3 nphases=3 basefreq=60 r1=15000 x1=0 units=km normamps=0
New Linecode.LC_MRT_TRF_17_4433A_4 nphases=4 basefreq=60 r1=15000 x1=0 units=km normamps=0
New Line.Resist_MTR_TRF_17_4433A phases=1 bus1=228752.1 bus2= MRT_228752TRF_17_4433A.1 linecode=LC_MRT_TRF_17_4433A_1 length=0.001 units=km
New Reactor.TRF_17_4433A_R phases=1 bus1=ET17_4433.4 R=15 X=0 basefreq=60
New Transformer.TRF_17_4457A phases=1 windings=3 buses=[MRT_309641TRF_17_4457A.2 ET17_4457.1.4 ET17_4457.4.2] conns=[Wye Wye Wye] kvs=[13.3367912182804 0.22 0.22] kvas=[10 10 10] %loadloss=1.95 %noloadloss=0.5
New Linecode.LC_MRT_TRF_17_4457A_1 nphases=1 basefreq=60 r1=15000 x1=0 units=km normamps=0
New Linecode.LC_MRT_TRF_17_4457A_2 nphases=2 basefreq=60 r1=15000 x1=0 units=km normamps=0
New Linecode.LC_MRT_TRF_17_4457A_3 nphases=3 basefreq=60 r1=15000 x1=0 units=km normamps=0
New Linecode.LC_MRT_TRF_17_4457A_4 nphases=4 basefreq=60 r1=15000 x1=0 units=km normamps=0
New Line.Resist_MTR_TRF_17_4457A phases=1 bus1=309641.2 bus2= MRT_309641TRF_17_4457A.2 linecode=LC_MRT_TRF_17_4457A_1 length=0.001 units=km
New Reactor.TRF_17_4457A_R phases=1 bus1=ET17_4457.4 R=15 X=0 basefreq=60
New Transformer.TRF_17_4474A phases=3 windings=2 buses=[785191.1.2.3 ET17_4474.1.2.3.4] conns=[Delta Wye] kvs=[23.1 0.38] kvas=[30 30] %loadloss=2.1 %noloadloss=0.533333
New Reactor.TRF_17_4474A_R phases=1 bus1=ET17_4474.4 R=15 X=0 basefreq=60
New Transformer.TRF_17_4500A phases=3 windings=2 buses=[478491.1.2.3 ET17_4500.1.2.3.4] conns=[Delta Wye] kvs=[23.1 0.38] kvas=[112.5 112.5] %loadloss=1.475556 %noloadloss=0.377777
New Reactor.TRF_17_4500A_R phases=1 bus1=ET17_4500.4 R=15 X=0 basefreq=60
New Transformer.TRF_17_4741A phases=1 windings=3 buses=[MRT_285611TRF_17_4741A.1 ET17_4741.1.4 ET17_4741.4.2] conns=[Wye Wye Wye] kvs=[13.3367912182804 0.22 0.22] kvas=[10 10 10] %loadloss=1.95 %noloadloss=0.5
New Linecode.LC_MRT_TRF_17_4741A_1 nphases=1 basefreq=60 r1=15000 x1=0 units=km normamps=0
New Linecode.LC_MRT_TRF_17_4741A_2 nphases=2 basefreq=60 r1=15000 x1=0 units=km normamps=0
New Linecode.LC_MRT_TRF_17_4741A_3 nphases=3 basefreq=60 r1=15000 x1=0 units=km normamps=0
New Linecode.LC_MRT_TRF_17_4741A_4 nphases=4 basefreq=60 r1=15000 x1=0 units=km normamps=0
New Line.Resist_MTR_TRF_17_4741A phases=1 bus1=285611.1 bus2= MRT_285611TRF_17_4741A.1 linecode=LC_MRT_TRF_17_4741A_1 length=0.001 units=km
New Reactor.TRF_17_4741A_R phases=1 bus1=ET17_4741.4 R=15 X=0 basefreq=60
New Transformer.TRF_17_4834A phases=1 windings=3 buses=[MRT_282611TRF_17_4834A.2 ET17_4834.1.4 ET17_4834.4.2] conns=[Wye Wye Wye] kvs=[13.3367912182804 0.22 0.22] kvas=[10 10 10] %loadloss=1.95 %noloadloss=0.5
New Linecode.LC_MRT_TRF_17_4834A_1 nphases=1 basefreq=60 r1=15000 x1=0 units=km normamps=0
New Linecode.LC_MRT_TRF_17_4834A_2 nphases=2 basefreq=60 r1=15000 x1=0 units=km normamps=0
New Linecode.LC_MRT_TRF_17_4834A_3 nphases=3 basefreq=60 r1=15000 x1=0 units=km normamps=0
New Linecode.LC_MRT_TRF_17_4834A_4 nphases=4 basefreq=60 r1=15000 x1=0 units=km normamps=0
New Line.Resist_MTR_TRF_17_4834A phases=1 bus1=282611.2 bus2= MRT_282611TRF_17_4834A.2 linecode=LC_MRT_TRF_17_4834A_1 length=0.001 units=km
New Reactor.TRF_17_4834A_R phases=1 bus1=ET17_4834.4 R=15 X=0 basefreq=60
New Transformer.TRF_17_4890A phases=1 windings=3 buses=[MRT_285631TRF_17_4890A.1 ET17_4890.1.4 ET17_4890.4.2] conns=[Wye Wye Wye] kvs=[13.3367912182804 0.22 0.22] kvas=[10 10 10] %loadloss=1.95 %noloadloss=0.5
New Linecode.LC_MRT_TRF_17_4890A_1 nphases=1 basefreq=60 r1=15000 x1=0 units=km normamps=0
New Linecode.LC_MRT_TRF_17_4890A_2 nphases=2 basefreq=60 r1=15000 x1=0 units=km normamps=0
New Linecode.LC_MRT_TRF_17_4890A_3 nphases=3 basefreq=60 r1=15000 x1=0 units=km normamps=0
New Linecode.LC_MRT_TRF_17_4890A_4 nphases=4 basefreq=60 r1=15000 x1=0 units=km normamps=0
New Line.Resist_MTR_TRF_17_4890A phases=1 bus1=285631.1 bus2= MRT_285631TRF_17_4890A.1 linecode=LC_MRT_TRF_17_4890A_1 length=0.001 units=km
New Reactor.TRF_17_4890A_R phases=1 bus1=ET17_4890.4 R=15 X=0 basefreq=60
New Transformer.TRF_17_4914A phases=3 windings=2 buses=[786101.1.2.3 ET17_4914.1.2.3.4] conns=[Delta Wye] kvs=[23.1 0.38] kvas=[30 30] %loadloss=2.1 %noloadloss=0.533333
New Reactor.TRF_17_4914A_R phases=1 bus1=ET17_4914.4 R=15 X=0 basefreq=60
New Transformer.TRF_17_4916A phases=1 windings=3 buses=[MRT_787031TRF_17_4916A.1 ET17_4916.1.4 ET17_4916.4.2] conns=[Wye Wye Wye] kvs=[13.3367912182804 0.22 0.22] kvas=[10 10 10] %loadloss=1.95 %noloadloss=0.5
New Linecode.LC_MRT_TRF_17_4916A_1 nphases=1 basefreq=60 r1=15000 x1=0 units=km normamps=0
New Linecode.LC_MRT_TRF_17_4916A_2 nphases=2 basefreq=60 r1=15000 x1=0 units=km normamps=0
New Linecode.LC_MRT_TRF_17_4916A_3 nphases=3 basefreq=60 r1=15000 x1=0 units=km normamps=0
New Linecode.LC_MRT_TRF_17_4916A_4 nphases=4 basefreq=60 r1=15000 x1=0 units=km normamps=0
New Line.Resist_MTR_TRF_17_4916A phases=1 bus1=787031.1 bus2= MRT_787031TRF_17_4916A.1 linecode=LC_MRT_TRF_17_4916A_1 length=0.001 units=km
New Reactor.TRF_17_4916A_R phases=1 bus1=ET17_4916.4 R=15 X=0 basefreq=60
New Transformer.TRF_17_4932A phases=3 windings=2 buses=[276561.1.2.3 ET17_4932.1.2.3.4] conns=[Delta Wye] kvs=[23.1 0.38] kvas=[30 30] %loadloss=2.1 %noloadloss=0.533333
New Reactor.TRF_17_4932A_R phases=1 bus1=ET17_4932.4 R=15 X=0 basefreq=60
New Transformer.TRF_17_4988A phases=3 windings=2 buses=[721811.1.2.3 ET17_4988.1.2.3.4] conns=[Delta Wye] kvs=[23.1 0.38] kvas=[45 45] %loadloss=1.866667 %noloadloss=0.477777
New Reactor.TRF_17_4988A_R phases=1 bus1=ET17_4988.4 R=15 X=0 basefreq=60
New Transformer.TRF_17_4997A phases=3 windings=2 buses=[744571.1.2.3 ET17_4997.1.2.3.4] conns=[Delta Wye] kvs=[23.1 0.38] kvas=[30 30] %loadloss=2.1 %noloadloss=0.533333
New Reactor.TRF_17_4997A_R phases=1 bus1=ET17_4997.4 R=15 X=0 basefreq=60
New Transformer.TRF_17_5052A phases=3 windings=2 buses=[726991.1.2.3 ET17_5052.1.2.3.4] conns=[Delta Wye] kvs=[23.1 0.38] kvas=[15 15] %loadloss=2.5 %noloadloss=0.633333
New Reactor.TRF_17_5052A_R phases=1 bus1=ET17_5052.4 R=15 X=0 basefreq=60
New Transformer.TRF_17_5062A phases=1 windings=3 buses=[MRT_284391TRF_17_5062A.3 ET17_5062.1.4 ET17_5062.4.2] conns=[Wye Wye Wye] kvs=[13.3367912182804 0.22 0.22] kvas=[10 10 10] %loadloss=1.95 %noloadloss=0.5
New Linecode.LC_MRT_TRF_17_5062A_1 nphases=1 basefreq=60 r1=15000 x1=0 units=km normamps=0
New Linecode.LC_MRT_TRF_17_5062A_2 nphases=2 basefreq=60 r1=15000 x1=0 units=km normamps=0
New Linecode.LC_MRT_TRF_17_5062A_3 nphases=3 basefreq=60 r1=15000 x1=0 units=km normamps=0
New Linecode.LC_MRT_TRF_17_5062A_4 nphases=4 basefreq=60 r1=15000 x1=0 units=km normamps=0
New Line.Resist_MTR_TRF_17_5062A phases=1 bus1=284391.3 bus2= MRT_284391TRF_17_5062A.3 linecode=LC_MRT_TRF_17_5062A_1 length=0.001 units=km
New Reactor.TRF_17_5062A_R phases=1 bus1=ET17_5062.4 R=15 X=0 basefreq=60
New Transformer.TRF_17_5116A phases=1 windings=3 buses=[MRT_715231TRF_17_5116A.1 ET17_5116.1.4 ET17_5116.4.2] conns=[Wye Wye Wye] kvs=[13.3367912182804 0.22 0.22] kvas=[25 25 25] %loadloss=1.56 %noloadloss=0.36
New Linecode.LC_MRT_TRF_17_5116A_1 nphases=1 basefreq=60 r1=15000 x1=0 units=km normamps=0
New Linecode.LC_MRT_TRF_17_5116A_2 nphases=2 basefreq=60 r1=15000 x1=0 units=km normamps=0
New Linecode.LC_MRT_TRF_17_5116A_3 nphases=3 basefreq=60 r1=15000 x1=0 units=km normamps=0
New Linecode.LC_MRT_TRF_17_5116A_4 nphases=4 basefreq=60 r1=15000 x1=0 units=km normamps=0
New Line.Resist_MTR_TRF_17_5116A phases=1 bus1=715231.1 bus2= MRT_715231TRF_17_5116A.1 linecode=LC_MRT_TRF_17_5116A_1 length=0.001 units=km
New Reactor.TRF_17_5116A_R phases=1 bus1=ET17_5116.4 R=15 X=0 basefreq=60
New Transformer.TRF_17_5131A phases=1 windings=3 buses=[MRT_284531TRF_17_5131A.1 ET17_5131.1.4 ET17_5131.4.2] conns=[Wye Wye Wye] kvs=[13.3367912182804 0.22 0.22] kvas=[10 10 10] %loadloss=1.95 %noloadloss=0.5
New Linecode.LC_MRT_TRF_17_5131A_1 nphases=1 basefreq=60 r1=15000 x1=0 units=km normamps=0
New Linecode.LC_MRT_TRF_17_5131A_2 nphases=2 basefreq=60 r1=15000 x1=0 units=km normamps=0
New Linecode.LC_MRT_TRF_17_5131A_3 nphases=3 basefreq=60 r1=15000 x1=0 units=km normamps=0
New Linecode.LC_MRT_TRF_17_5131A_4 nphases=4 basefreq=60 r1=15000 x1=0 units=km normamps=0
New Line.Resist_MTR_TRF_17_5131A phases=1 bus1=284531.1 bus2= MRT_284531TRF_17_5131A.1 linecode=LC_MRT_TRF_17_5131A_1 length=0.001 units=km
New Reactor.TRF_17_5131A_R phases=1 bus1=ET17_5131.4 R=15 X=0 basefreq=60
New Transformer.TRF_17_514A phases=3 windings=2 buses=[296211.1.2.3 ET17_514.1.2.3.4] conns=[Delta Wye] kvs=[23.1 0.38] kvas=[30 30] %loadloss=2.1 %noloadloss=0.533333
New Reactor.TRF_17_514A_R phases=1 bus1=ET17_514.4 R=15 X=0 basefreq=60
New Transformer.TRF_17_5141A phases=1 windings=3 buses=[MRT_744051TRF_17_5141A.1 ET17_5141.1.4 ET17_5141.4.2] conns=[Wye Wye Wye] kvs=[13.3367912182804 0.22 0.22] kvas=[10 10 10] %loadloss=1.95 %noloadloss=0.5
New Linecode.LC_MRT_TRF_17_5141A_1 nphases=1 basefreq=60 r1=15000 x1=0 units=km normamps=0
New Linecode.LC_MRT_TRF_17_5141A_2 nphases=2 basefreq=60 r1=15000 x1=0 units=km normamps=0
New Linecode.LC_MRT_TRF_17_5141A_3 nphases=3 basefreq=60 r1=15000 x1=0 units=km normamps=0
New Linecode.LC_MRT_TRF_17_5141A_4 nphases=4 basefreq=60 r1=15000 x1=0 units=km normamps=0
New Line.Resist_MTR_TRF_17_5141A phases=1 bus1=744051.1 bus2= MRT_744051TRF_17_5141A.1 linecode=LC_MRT_TRF_17_5141A_1 length=0.001 units=km
New Reactor.TRF_17_5141A_R phases=1 bus1=ET17_5141.4 R=15 X=0 basefreq=60
New Transformer.TRF_17_5148A phases=1 windings=3 buses=[MRT_744741TRF_17_5148A.1 ET17_5148.1.4 ET17_5148.4.2] conns=[Wye Wye Wye] kvs=[13.3367912182804 0.22 0.22] kvas=[10 10 10] %loadloss=1.95 %noloadloss=0.5
New Linecode.LC_MRT_TRF_17_5148A_1 nphases=1 basefreq=60 r1=15000 x1=0 units=km normamps=0
New Linecode.LC_MRT_TRF_17_5148A_2 nphases=2 basefreq=60 r1=15000 x1=0 units=km normamps=0
New Linecode.LC_MRT_TRF_17_5148A_3 nphases=3 basefreq=60 r1=15000 x1=0 units=km normamps=0
New Linecode.LC_MRT_TRF_17_5148A_4 nphases=4 basefreq=60 r1=15000 x1=0 units=km normamps=0
New Line.Resist_MTR_TRF_17_5148A phases=1 bus1=744741.1 bus2= MRT_744741TRF_17_5148A.1 linecode=LC_MRT_TRF_17_5148A_1 length=0.001 units=km
New Reactor.TRF_17_5148A_R phases=1 bus1=ET17_5148.4 R=15 X=0 basefreq=60
New Transformer.TRF_17_5156A phases=3 windings=2 buses=[644211.1.2.3 ET17_5156.1.2.3.4] conns=[Delta Wye] kvs=[23.1 0.38] kvas=[15 15] %loadloss=2.5 %noloadloss=0.633333
New Reactor.TRF_17_5156A_R phases=1 bus1=ET17_5156.4 R=15 X=0 basefreq=60
New Transformer.TRF_17_5173A phases=3 windings=2 buses=[652451.1.2.3 ET17_5173.1.2.3.4] conns=[Delta Wye] kvs=[23.1 0.38] kvas=[30 30] %loadloss=2.1 %noloadloss=0.533333
New Reactor.TRF_17_5173A_R phases=1 bus1=ET17_5173.4 R=15 X=0 basefreq=60
New Transformer.TRF_17_5211A phases=1 windings=3 buses=[MRT_674972TRF_17_5211A.1 ET17_5211.1.4 ET17_5211.4.2] conns=[Wye Wye Wye] kvs=[13.3367912182804 0.22 0.22] kvas=[25 25 25] %loadloss=1.56 %noloadloss=0.36
New Linecode.LC_MRT_TRF_17_5211A_1 nphases=1 basefreq=60 r1=15000 x1=0 units=km normamps=0
New Linecode.LC_MRT_TRF_17_5211A_2 nphases=2 basefreq=60 r1=15000 x1=0 units=km normamps=0
New Linecode.LC_MRT_TRF_17_5211A_3 nphases=3 basefreq=60 r1=15000 x1=0 units=km normamps=0
New Linecode.LC_MRT_TRF_17_5211A_4 nphases=4 basefreq=60 r1=15000 x1=0 units=km normamps=0
New Line.Resist_MTR_TRF_17_5211A phases=1 bus1=674972.1 bus2= MRT_674972TRF_17_5211A.1 linecode=LC_MRT_TRF_17_5211A_1 length=0.001 units=km
New Reactor.TRF_17_5211A_R phases=1 bus1=ET17_5211.4 R=15 X=0 basefreq=60
New Transformer.TRF_17_5262A phases=1 windings=3 buses=[MRT_676601TRF_17_5262A.2 ET17_5262.1.4 ET17_5262.4.2] conns=[Wye Wye Wye] kvs=[13.3367912182804 0.22 0.22] kvas=[15 15 15] %loadloss=1.766667 %noloadloss=0.433333
New Linecode.LC_MRT_TRF_17_5262A_1 nphases=1 basefreq=60 r1=15000 x1=0 units=km normamps=0
New Linecode.LC_MRT_TRF_17_5262A_2 nphases=2 basefreq=60 r1=15000 x1=0 units=km normamps=0
New Linecode.LC_MRT_TRF_17_5262A_3 nphases=3 basefreq=60 r1=15000 x1=0 units=km normamps=0
New Linecode.LC_MRT_TRF_17_5262A_4 nphases=4 basefreq=60 r1=15000 x1=0 units=km normamps=0
New Line.Resist_MTR_TRF_17_5262A phases=1 bus1=676601.2 bus2= MRT_676601TRF_17_5262A.2 linecode=LC_MRT_TRF_17_5262A_1 length=0.001 units=km
New Reactor.TRF_17_5262A_R phases=1 bus1=ET17_5262.4 R=15 X=0 basefreq=60
New Transformer.TRF_17_5283A phases=3 windings=2 buses=[684881.1.2.3 ET17_5283.1.2.3.4] conns=[Delta Wye] kvs=[23.1 0.38] kvas=[30 30] %loadloss=2.1 %noloadloss=0.533333
New Reactor.TRF_17_5283A_R phases=1 bus1=ET17_5283.4 R=15 X=0 basefreq=60
New Transformer.TRF_17_5296A phases=1 windings=3 buses=[MRT_684941TRF_17_5296A.2 ET17_5296.1.4 ET17_5296.4.2] conns=[Wye Wye Wye] kvs=[13.3367912182804 0.22 0.22] kvas=[15 15 15] %loadloss=1.766667 %noloadloss=0.433333
New Linecode.LC_MRT_TRF_17_5296A_1 nphases=1 basefreq=60 r1=15000 x1=0 units=km normamps=0
New Linecode.LC_MRT_TRF_17_5296A_2 nphases=2 basefreq=60 r1=15000 x1=0 units=km normamps=0
New Linecode.LC_MRT_TRF_17_5296A_3 nphases=3 basefreq=60 r1=15000 x1=0 units=km normamps=0
New Linecode.LC_MRT_TRF_17_5296A_4 nphases=4 basefreq=60 r1=15000 x1=0 units=km normamps=0
New Line.Resist_MTR_TRF_17_5296A phases=1 bus1=684941.2 bus2= MRT_684941TRF_17_5296A.2 linecode=LC_MRT_TRF_17_5296A_1 length=0.001 units=km
New Reactor.TRF_17_5296A_R phases=1 bus1=ET17_5296.4 R=15 X=0 basefreq=60
New Transformer.TRF_17_5436A phases=3 windings=2 buses=[682121.1.2.3 ET17_5436.1.2.3.4] conns=[Delta Wye] kvs=[23.1 0.38] kvas=[30 30] %loadloss=2.1 %noloadloss=0.533333
New Reactor.TRF_17_5436A_R phases=1 bus1=ET17_5436.4 R=15 X=0 basefreq=60
New Transformer.TRF_17_5441A phases=3 windings=2 buses=[280121.1.2.3 ET17_5441.1.2.3.4] conns=[Delta Wye] kvs=[23.1 0.38] kvas=[30 30] %loadloss=2.1 %noloadloss=0.533333
New Reactor.TRF_17_5441A_R phases=1 bus1=ET17_5441.4 R=15 X=0 basefreq=60
New Transformer.TRF_17_5541A phases=1 windings=3 buses=[MRT_780281TRF_17_5541A.2 ET17_5541.1.4 ET17_5541.4.2] conns=[Wye Wye Wye] kvs=[13.3367912182804 0.22 0.22] kvas=[10 10 10] %loadloss=1.95 %noloadloss=0.5
New Linecode.LC_MRT_TRF_17_5541A_1 nphases=1 basefreq=60 r1=15000 x1=0 units=km normamps=0
New Linecode.LC_MRT_TRF_17_5541A_2 nphases=2 basefreq=60 r1=15000 x1=0 units=km normamps=0
New Linecode.LC_MRT_TRF_17_5541A_3 nphases=3 basefreq=60 r1=15000 x1=0 units=km normamps=0
New Linecode.LC_MRT_TRF_17_5541A_4 nphases=4 basefreq=60 r1=15000 x1=0 units=km normamps=0
New Line.Resist_MTR_TRF_17_5541A phases=1 bus1=780281.2 bus2= MRT_780281TRF_17_5541A.2 linecode=LC_MRT_TRF_17_5541A_1 length=0.001 units=km
New Reactor.TRF_17_5541A_R phases=1 bus1=ET17_5541.4 R=15 X=0 basefreq=60
New Transformer.TRF_17_5577A phases=1 windings=3 buses=[MRT_748501TRF_17_5577A.1 ET17_5577.1.4 ET17_5577.4.2] conns=[Wye Wye Wye] kvs=[13.3367912182804 0.22 0.22] kvas=[10 10 10] %loadloss=1.95 %noloadloss=0.5
New Linecode.LC_MRT_TRF_17_5577A_1 nphases=1 basefreq=60 r1=15000 x1=0 units=km normamps=0
New Linecode.LC_MRT_TRF_17_5577A_2 nphases=2 basefreq=60 r1=15000 x1=0 units=km normamps=0
New Linecode.LC_MRT_TRF_17_5577A_3 nphases=3 basefreq=60 r1=15000 x1=0 units=km normamps=0
New Linecode.LC_MRT_TRF_17_5577A_4 nphases=4 basefreq=60 r1=15000 x1=0 units=km normamps=0
New Line.Resist_MTR_TRF_17_5577A phases=1 bus1=748501.1 bus2= MRT_748501TRF_17_5577A.1 linecode=LC_MRT_TRF_17_5577A_1 length=0.001 units=km
New Reactor.TRF_17_5577A_R phases=1 bus1=ET17_5577.4 R=15 X=0 basefreq=60
New Transformer.TRF_17_5634A phases=1 windings=3 buses=[MRT_752691TRF_17_5634A.2 ET17_5634.1.4 ET17_5634.4.2] conns=[Wye Wye Wye] kvs=[13.3367912182804 0.22 0.22] kvas=[10 10 10] %loadloss=1.95 %noloadloss=0.5
New Linecode.LC_MRT_TRF_17_5634A_1 nphases=1 basefreq=60 r1=15000 x1=0 units=km normamps=0
New Linecode.LC_MRT_TRF_17_5634A_2 nphases=2 basefreq=60 r1=15000 x1=0 units=km normamps=0
New Linecode.LC_MRT_TRF_17_5634A_3 nphases=3 basefreq=60 r1=15000 x1=0 units=km normamps=0
New Linecode.LC_MRT_TRF_17_5634A_4 nphases=4 basefreq=60 r1=15000 x1=0 units=km normamps=0
New Line.Resist_MTR_TRF_17_5634A phases=1 bus1=752691.2 bus2= MRT_752691TRF_17_5634A.2 linecode=LC_MRT_TRF_17_5634A_1 length=0.001 units=km
New Reactor.TRF_17_5634A_R phases=1 bus1=ET17_5634.4 R=15 X=0 basefreq=60
New Transformer.TRF_17_5658A phases=3 windings=2 buses=[759721.1.2.3 ET17_5658.1.2.3.4] conns=[Delta Wye] kvs=[23.1 0.38] kvas=[30 30] %loadloss=2.1 %noloadloss=0.533333
New Reactor.TRF_17_5658A_R phases=1 bus1=ET17_5658.4 R=15 X=0 basefreq=60
New Transformer.TRF_17_5685A phases=3 windings=2 buses=[760251.1.2.3 ET17_5685.1.2.3.4] conns=[Delta Wye] kvs=[23.1 0.38] kvas=[30 30] %loadloss=2.1 %noloadloss=0.533333
New Reactor.TRF_17_5685A_R phases=1 bus1=ET17_5685.4 R=15 X=0 basefreq=60
New Transformer.TRF_17_5714A phases=3 windings=2 buses=[683571.1.2.3 ET17_5714.1.2.3.4] conns=[Delta Wye] kvs=[23.1 0.38] kvas=[15 15] %loadloss=2.5 %noloadloss=0.633333
New Reactor.TRF_17_5714A_R phases=1 bus1=ET17_5714.4 R=15 X=0 basefreq=60
New Transformer.TRF_17_5750A phases=3 windings=2 buses=[764291.1.2.3 ET17_5750.1.2.3.4] conns=[Delta Wye] kvs=[23.1 0.38] kvas=[30 30] %loadloss=2.1 %noloadloss=0.533333
New Reactor.TRF_17_5750A_R phases=1 bus1=ET17_5750.4 R=15 X=0 basefreq=60
New Transformer.TRF_17_5755A phases=1 windings=3 buses=[MRT_763151TRF_17_5755A.1 ET17_5755.1.4 ET17_5755.4.2] conns=[Wye Wye Wye] kvs=[13.3367912182804 0.22 0.22] kvas=[10 10 10] %loadloss=1.95 %noloadloss=0.5
New Linecode.LC_MRT_TRF_17_5755A_1 nphases=1 basefreq=60 r1=15000 x1=0 units=km normamps=0
New Linecode.LC_MRT_TRF_17_5755A_2 nphases=2 basefreq=60 r1=15000 x1=0 units=km normamps=0
New Linecode.LC_MRT_TRF_17_5755A_3 nphases=3 basefreq=60 r1=15000 x1=0 units=km normamps=0
New Linecode.LC_MRT_TRF_17_5755A_4 nphases=4 basefreq=60 r1=15000 x1=0 units=km normamps=0
New Line.Resist_MTR_TRF_17_5755A phases=1 bus1=763151.1 bus2= MRT_763151TRF_17_5755A.1 linecode=LC_MRT_TRF_17_5755A_1 length=0.001 units=km
New Reactor.TRF_17_5755A_R phases=1 bus1=ET17_5755.4 R=15 X=0 basefreq=60
New Transformer.TRF_17_5851A phases=3 windings=2 buses=[292771.1.2.3 ET17_5851.1.2.3.4] conns=[Delta Wye] kvs=[23.1 0.38] kvas=[15 15] %loadloss=2.5 %noloadloss=0.633333
New Reactor.TRF_17_5851A_R phases=1 bus1=ET17_5851.4 R=15 X=0 basefreq=60
New Transformer.TRF_17_5880A phases=3 windings=2 buses=[768901.1.2.3 ET17_5880.1.2.3.4] conns=[Delta Wye] kvs=[23.1 0.38] kvas=[30 30] %loadloss=2.1 %noloadloss=0.533333
New Reactor.TRF_17_5880A_R phases=1 bus1=ET17_5880.4 R=15 X=0 basefreq=60
New Transformer.TRF_17_5893A phases=1 windings=3 buses=[MRT_780451TRF_17_5893A.1 ET17_5893.1.4 ET17_5893.4.2] conns=[Wye Wye Wye] kvs=[13.3367912182804 0.22 0.22] kvas=[15 15 15] %loadloss=1.766667 %noloadloss=0.433333
...